<?xml version="1.0" encoding="UTF-8"?>

<!-- generated on 2025-06-05 11:19:48.124178 by osmWebWizard.py UNKNOWN
<configuration>
    <net-file value="/Users/gora/Sumo/2025-06-05-11-18-58/osm.net.xml.gz"/>
    <output-trip-file value="/Users/gora/Sumo/2025-06-05-11-18-58/osm.passenger.trips.xml"/>
    <route-file value="/Users/gora/Sumo/2025-06-05-11-18-58/osm.passenger.rou.xml"/>
    <prefix value="veh"/>
    <trip-attributes value="departLane=&quot;best&quot;"/>
    <fringe-start-attributes value="departSpeed=&quot;max&quot;"/>
    <vehicle-class value="passenger"/>
    <lanes value="True"/>
    <fringe-factor value="5"/>
    <allow-fringe.min-length value="1000.0"/>
    <via-edge-types value="highway.motorway,highway.motorway_link,highway.trunk_link,highway.primary_link,highway.secondary_link,highway.tertiary_link"/>
    <min-distance value="300.0"/>
    <min-distance.fringe value="10.0"/>
    <remove-loops value="True"/>
    <validate value="True"/>
    <insertion-density value="12.0"/>
</configuration>
-->

<!-- generated on 2025-06-05 11:19:48 by Eclipse SUMO duarouter Version 1.22.0
<duarouterConfiguration xmlns:xsi="http://www.w3.org/2001/XMLSchema-instance" xsi:noNamespaceSchemaLocation="http://sumo.dlr.de/xsd/duarouterConfiguration.xsd">

    <input>
        <net-file value="/Users/gora/Sumo/2025-06-05-11-18-58/osm.net.xml.gz"/>
        <route-files value="/Users/gora/Sumo/2025-06-05-11-18-58/osm.passenger.trips.xml"/>
    </input>

    <output>
        <output-file value="/Users/gora/Sumo/2025-06-05-11-18-58/osm.passenger.trips.xml.tmp"/>
        <alternatives-output value="NUL"/>
        <write-trips value="true"/>
    </output>

    <processing>
        <remove-loops value="true"/>
    </processing>

    <time>
        <begin value="0.0"/>
        <end value="3600.0"/>
    </time>

    <report>
        <no-warnings value="true"/>
        <ignore-errors value="true"/>
        <no-step-log value="true"/>
    </report>

</duarouterConfiguration>
-->

<routes xmlns:xsi="http://www.w3.org/2001/XMLSchema-instance" xsi:noNamespaceSchemaLocation="http://sumo.dlr.de/xsd/routes_file.xsd">
    <vType id="veh_passenger" vClass="passenger"/>
    <trip id="veh0" type="veh_passenger" depart="1927.15" departLane="best" departSpeed="max" from="390210005" to="-390210005" via="371345948#0"/>
    <trip id="veh1" type="veh_passenger" depart="2312.58" departLane="best" departSpeed="max" from="390210005" to="-390210005" via="371345948#0"/>
    <trip id="veh2" type="veh_passenger" depart="2505.30" departLane="best" departSpeed="max" from="390210005" to="-390210005" via="-10152204#0"/>
    <trip id="veh3" type="veh_passenger" depart="2890.73" departLane="best" departSpeed="max" from="390210005" to="-390210005" via="371345948#0"/>
</routes>
