<?xml version="1.0" encoding="UTF-8"?>

<!-- generated on 2025-06-05 11:19:43 by Eclipse SUMO polyconvert Version 1.22.0
<polyconvertConfiguration xmlns:xsi="http://www.w3.org/2001/XMLSchema-instance" xsi:noNamespaceSchemaLocation="http://sumo.dlr.de/xsd/polyconvertConfiguration.xsd">

    <input>
        <net-file value="osm.net.xml.gz"/>
        <osm-files value="osm_bbox.osm.xml.gz"/>
        <osm.keep-full-type value="true"/>
        <osm.merge-relations value="1"/>
        <type-file value="${SUMO_HOME}/data/typemap/osmPolyconvert.typ.xml"/>
    </input>

    <output>
        <output-file value="osm.poly.xml.gz"/>
    </output>

    <report>
        <verbose value="true"/>
    </report>

</polyconvertConfiguration>
-->

<additional xmlns:xsi="http://www.w3.org/2001/XMLSchema-instance" xsi:noNamespaceSchemaLocation="http://sumo.dlr.de/xsd/additional_file.xsd">
    <location netOffset="-288275.87,-4858402.57" convBoundary="-45.38,0.00,192.74,166.98" origBoundary="18.365330,43.848376,18.368305,43.849865" projParameter="+proj=utm +zone=34 +ellps=WGS84 +datum=WGS84 +units=m +no_defs"/>

    <poly id="11659175" type="landuse.residential" color="235,235,227" fill="1" layer="-3.00" shape="50.732570,159.862023 60.988190,110.014562 -4.269039,100.842465 -33.436058,93.789237"/>
    <poly id="1187498420" type="amenity.cafe" color="237,199,199" fill="1" layer="-1.00" shape="184.346931,152.047976 186.757725,142.098214 184.346931,152.047976"/>
    <poly id="1187498420#1" type="building.yes" color="255,230,230" fill="1" layer="-1.00" shape="184.346931,152.047976 186.757725,142.098214 184.346931,152.047976"/>
    <poly id="144228328" type="landuse.grass" color="194,194,130" fill="0" layer="-3.00" shape="27.126026,56.113828 26.179952,63.037292"/>
    <poly id="169711531" type="natural.water" color="181,209,209" fill="1" layer="-4.00" shape="-40.921528,33.889193 6.113542,44.130895 54.334898,54.235057 128.561710,71.671974 170.729030,77.644797 160.758695,49.566341 104.429349,39.286083 55.229004,29.012620 -34.455539,10.312503"/>
    <poly id="2588133" type="landuse.residential" color="235,235,227" fill="1" layer="-3.00" shape="74.746223,22.097855"/>
    <poly id="2588134" type="landuse.residential" color="235,235,227" fill="1" layer="-3.00" shape="74.746223,22.097855 67.124359,69.259686"/>
    <poly id="2618663" type="landuse.residential" color="235,235,227" fill="1" layer="-3.00" shape="100.674777,121.469438 97.763250,121.506599 94.761028,121.980262 91.301043,123.491388 88.969460,126.578713 88.003585,126.820731 85.803397,127.213255 84.127852,128.667536 83.479856,130.300326 83.561951,132.877144 84.044177,135.385622 84.049431,138.076070 83.039221,140.209603 81.528079,142.025549 78.617316,159.006903"/>
    <poly id="332003453" type="building.house" color="255,230,230" fill="0" layer="-1.00" shape="19.099878,163.038119 -2.810077,159.744956 -21.413057,156.957956 -25.191434,142.168810"/>
    <poly id="44740562" type="building.yes" color="255,230,230" fill="1" layer="-1.00" shape="99.744206,17.999360 116.167083,21.801213 115.494740,24.691135 134.276492,29.040515 134.963857,26.116762 182.473166,37.111748 183.577502,32.373570 190.532202,33.975503 191.657830,29.147703 185.059632,27.623362 99.744206,17.999360"/>
    <poly id="44740562#1" type="shop.mall" color="237,199,255" fill="1" layer="-1.00" shape="99.744206,17.999360 116.167083,21.801213 115.494740,24.691135 134.276492,29.040515 134.963857,26.116762 182.473166,37.111748 183.577502,32.373570 190.532202,33.975503 191.657830,29.147703 185.059632,27.623362 99.744206,17.999360"/>
    <poly id="473159890" type="building.yes" color="255,230,230" fill="1" layer="-1.00" shape="41.483509,111.759001 43.203991,109.947494 46.365221,112.948753 44.652423,114.748897 41.483509,111.759001"/>
    <poly id="473159890#1" type="shop.kiosk" color="237,199,255" fill="1" layer="-1.00" shape="41.483509,111.759001 43.203991,109.947494 46.365221,112.948753 44.652423,114.748897 41.483509,111.759001"/>
    <poly id="473159937" type="building.yes" color="255,230,230" fill="1" layer="-1.00" shape="125.256046,128.802724 162.109625,136.957130 90.280094,157.868174 91.126672,151.103547 92.934922,146.743178 95.600054,142.255448 98.870716,138.337695 103.029653,135.025387 107.798011,132.405236 112.622177,131.284274 117.462010,130.907738 120.320351,130.716625 123.368575,129.919079 125.256046,128.802724"/>
    <poly id="473159938" type="building.yes" color="255,230,230" fill="1" layer="-1.00" shape="90.280094,157.868174 162.109625,136.957130 125.256046,128.802724 125.751829,134.768546 125.576977,139.888506 124.761055,145.595917 123.340829,150.266345 120.713353,153.663276 117.401900,156.047999 113.766409,157.353459 109.243867,157.586472 105.369170,156.687026 101.047984,156.168708 97.912471,156.246360 94.006222,156.882243 90.280094,157.868174"/>
    <poly id="473159943" type="man_made.bridge" color="255,230,230" fill="1" layer="-1.00" shape="69.974660,22.094221 71.529658,22.411580 82.389563,24.856272 90.706182,26.270177 92.341913,26.596088 86.014185,65.133378 84.418653,64.806189 77.277762,63.421545 65.156190,60.772463 63.479568,60.425626 69.974660,22.094221"/>
    <poly id="473159953" type="building.apartments" color="255,230,230" fill="1" layer="-1.00" shape="-45.383019,102.675544 17.642907,113.786216 14.116267,133.655744 -45.383019,102.675544"/>
    <poly id="473415080" type="amenity.parking" color="184,184,179" fill="1" layer="-1.00" shape="7.583613,159.180207 8.496511,155.004003 7.786636,149.645392 -15.291598,139.740784 -24.561116,136.700772 -24.771847,138.419701 -25.191434,142.168810 -21.413057,156.957956 -2.810077,159.744956 -1.884088,155.979708 7.583613,159.180207"/>
    <poly id="473415085" type="landuse.grass" color="194,194,130" fill="1" layer="-3.00" shape="38.070588,165.246480 28.897068,166.984187 29.915649,164.861496 31.826945,162.221153 33.047447,161.637464 34.671926,161.863653 36.651547,163.134759 37.824540,164.342624 38.070588,165.246480"/>
    <poly id="473415087" type="amenity.fountain" color="237,199,199" fill="1" layer="-1.00" shape="91.599790,133.121389 91.571832,134.011740 91.195410,134.824245 90.538973,135.434425 89.696146,135.750351 88.802160,135.723241 87.985622,135.348998 87.369580,134.701529 84.482780,134.504425 83.797429,132.691749 83.864112,130.743932 84.668975,128.983843 86.091197,127.659934 87.920121,126.979045 89.861171,127.039507 91.632663,127.839176 92.965450,129.264324 93.650798,131.077001 91.599790,133.121389"/>
    <poly id="473415088" type="landuse.grass" color="194,194,130" fill="1" layer="-3.00" shape="73.543729,110.882003 63.886527,109.310711 64.519608,107.967468 65.818784,106.569648 67.556108,105.791608 69.460767,105.719804 71.252134,106.385416 72.645341,107.686335 73.432713,109.417932 73.543729,110.882003"/>
    <poly id="473415089" type="landuse.grass" color="194,194,130" fill="1" layer="-3.00" shape="58.947355,156.064665 65.316296,119.082568 75.071254,120.439501 68.913018,157.470463 68.263715,159.314543 66.958636,160.779261 65.191298,161.624968 63.223414,161.732143 61.368463,161.090797 59.902569,159.781079 59.057870,158.017955 58.947355,156.064665"/>
    <poly id="473415090" type="landuse.grass" color="194,194,130" fill="0" layer="-3.00" shape="56.203511,166.414238 57.709841,165.710264 59.365306,165.646397 60.928058,166.208106"/>
    <poly id="847513906" type="building.apartments" color="255,230,230" fill="1" layer="-1.00" shape="17.642907,113.786216 29.887400,115.497356 33.406999,117.119645 35.712103,119.514441 37.044104,122.429450 37.155240,125.917039 34.636601,140.050769 13.479071,136.889226 14.116267,133.655744 17.642907,113.786216"/>
    <poly id="91815242" type="building.apartments" color="255,230,230" fill="1" layer="-1.00" shape="189.709255,155.446172"/>
    <poly id="941568154" type="landuse.grass" color="194,194,130" fill="1" layer="-3.00" shape="5.502933,2.501382 5.167971,3.857366 61.959331,15.489638 63.225867,9.278658 69.004027,10.317569 5.502933,2.501382"/>
    <poi id="10557315694" type="shop.bakery" color="237,199,255" layer="4.00" x="4.80" y="115.05"/>
    <poi id="10557315695" type="amenity.bank" color="237,199,199" layer="4.00" x="-6.85" y="111.10"/>
    <poi id="10557315696" type="amenity.atm" color="237,199,199" layer="4.00" x="-12.71" y="109.93"/>
    <poi id="11519003269" type="shop.telecommunication" color="237,199,255" layer="4.00" x="124.97" y="2.50"/>
    <poi id="11519003270" type="shop.supermarket" color="237,199,255" layer="4.00" x="112.46" y="10.22"/>
    <poi id="11519003271" type="shop.clothes" color="237,199,255" layer="4.00" x="136.91" y="18.08"/>
    <poi id="1241735935" type="amenity.pharmacy" color="237,199,199" layer="4.00" x="126.11" y="133.19"/>
    <poi id="12461344231" type="historic.memorial" color="128,255,128" layer="4.00" x="86.91" y="137.08"/>
    <poi id="1400057865" type="amenity.taxi" color="237,199,199" layer="4.00" x="50.60" y="123.64"/>
    <poi id="6053759601" type="amenity.fast_food" color="237,199,199" layer="4.00" x="190.62" y="145.56"/>
    <poi id="6365113744" type="amenity.bank" color="237,199,199" layer="4.00" x="107.14" y="140.91"/>
    <poi id="7930786656" type="natural.tree" color="140,196,107" layer="1.00" x="134.00" y="77.10"/>
    <poi id="7930786657" type="natural.tree" color="140,196,107" layer="1.00" x="124.70" y="75.32"/>
    <poi id="7930786658" type="natural.tree" color="140,196,107" layer="1.00" x="116.51" y="73.78"/>
    <poi id="7930786659" type="natural.tree" color="140,196,107" layer="1.00" x="108.01" y="71.83"/>
    <poi id="7930786660" type="natural.tree" color="140,196,107" layer="1.00" x="100.54" y="70.82"/>
    <poi id="7930786661" type="natural.tree" color="140,196,107" layer="1.00" x="93.04" y="68.60"/>
    <poi id="7930786662" type="natural.tree" color="140,196,107" layer="1.00" x="186.61" y="86.06"/>
    <poi id="7930786663" type="natural.tree" color="140,196,107" layer="1.00" x="177.31" y="84.28"/>
    <poi id="7930786664" type="natural.tree" color="140,196,107" layer="1.00" x="169.12" y="82.73"/>
    <poi id="7930786665" type="natural.tree" color="140,196,107" layer="1.00" x="160.62" y="80.78"/>
    <poi id="7930786666" type="natural.tree" color="140,196,107" layer="1.00" x="153.15" y="79.77"/>
    <poi id="7930786667" type="natural.tree" color="140,196,107" layer="1.00" x="145.65" y="77.55"/>
    <poi id="7930816785" type="natural.tree" color="140,196,107" layer="1.00" x="109.14" y="116.36"/>
    <poi id="7930816786" type="natural.tree" color="140,196,107" layer="1.00" x="118.26" y="118.23"/>
    <poi id="7930816787" type="natural.tree" color="140,196,107" layer="1.00" x="126.30" y="119.80"/>
    <poi id="7930816788" type="natural.tree" color="140,196,107" layer="1.00" x="134.32" y="121.05"/>
    <poi id="7930816789" type="natural.tree" color="140,196,107" layer="1.00" x="142.78" y="122.50"/>
    <poi id="7930816790" type="natural.tree" color="140,196,107" layer="1.00" x="149.84" y="123.78"/>
    <poi id="7930816791" type="natural.tree" color="140,196,107" layer="1.00" x="158.73" y="125.11"/>
    <poi id="7930816792" type="natural.tree" color="140,196,107" layer="1.00" x="167.56" y="126.12"/>
    <poi id="7930816793" type="natural.tree" color="140,196,107" layer="1.00" x="176.68" y="127.98"/>
    <poi id="7930816794" type="natural.tree" color="140,196,107" layer="1.00" x="184.72" y="129.56"/>
    <poi id="7930816795" type="natural.tree" color="140,196,107" layer="1.00" x="192.74" y="130.80"/>
    <poi id="7930816869" type="natural.tree" color="140,196,107" layer="1.00" x="152.69" y="87.46"/>
    <poi id="7930816870" type="natural.tree" color="140,196,107" layer="1.00" x="159.28" y="89.04"/>
    <poi id="7930816871" type="natural.tree" color="140,196,107" layer="1.00" x="168.48" y="90.38"/>
    <poi id="7930816872" type="natural.tree" color="140,196,107" layer="1.00" x="189.85" y="93.60"/>
    <poi id="7930816873" type="natural.tree" color="140,196,107" layer="1.00" x="179.33" y="92.15"/>
    <poi id="7930816874" type="natural.tree" color="140,196,107" layer="1.00" x="44.62" y="57.76"/>
    <poi id="7930816875" type="natural.tree" color="140,196,107" layer="1.00" x="53.37" y="59.61"/>
    <poi id="7930816876" type="natural.tree" color="140,196,107" layer="1.00" x="26.68" y="53.37"/>
    <poi id="7930816877" type="natural.tree" color="140,196,107" layer="1.00" x="19.82" y="52.46"/>
    <poi id="7930816878" type="natural.tree" color="140,196,107" layer="1.00" x="-8.11" y="47.24"/>
    <poi id="7930816879" type="natural.tree" color="140,196,107" layer="1.00" x="-27.77" y="42.33"/>
    <poi id="7930816880" type="natural.tree" color="140,196,107" layer="1.00" x="-36.37" y="40.48"/>
    <poi id="7930816890" type="natural.tree" color="140,196,107" layer="1.00" x="-43.15" y="46.80"/>
    <poi id="7930816969" type="natural.tree" color="140,196,107" layer="1.00" x="-41.37" y="89.38"/>
    <poi id="7930816970" type="natural.tree" color="140,196,107" layer="1.00" x="-29.29" y="91.47"/>
    <poi id="8296492079" type="shop.chemist" color="237,199,255" layer="4.00" x="137.47" y="135.46"/>
</additional>
