<net>
    <location netOffset="0.00,0.00" convBoundary="-250.00,-250.00,250.00,250.00" origBoundary="-250.00,-250.00,250.00,250.00"/>
    <edge id="1i" from="1" to="0" priority="1" numLanes="1" speed="13.89"/>
    <edge id="2i" from="2" to="0" priority="1" numLanes="1" speed="13.89"/>
    <edge id="3i" from="3" to="0" priority="1" numLanes="1" speed="13.89"/>
    <edge id="4i" from="4" to="0" priority="1" numLanes="1" speed="13.89"/>
    <edge id="1o" from="0" to="1" priority="1" numLanes="1" speed="13.89"/>
    <edge id="2o" from="0" to="2" priority="1" numLanes="1" speed="13.89"/>
    <edge id="3o" from="0" to="3" priority="1" numLanes="1" speed="13.89"/>
    <edge id="4o" from="0" to="4" priority="1" numLanes="1" speed="13.89"/>
    <junction id="0" x="0.00" y="0.00" type="traffic_light" incLanes="1i_0 2i_0 3i_0 4i_0" intLanes="" shape="..."/>
    <junction id="1" x="0.00" y="250.00" type="dead_end"/>
    <junction id="2" x="250.00" y="0.00" type="dead_end"/>
    <junction id="3" x="0.00" y="-250.00" type="dead_end"/>
    <junction id="4" x="-250.00" y="0.00" type="dead_end"/>
</net>
