<?xml version="1.0" encoding="UTF-8"?>

<!-- generated on 2025-06-05 11:19:43 by Eclipse SUMO netconvert Version 1.22.0
<netconvertConfiguration xmlns:xsi="http://www.w3.org/2001/XMLSchema-instance" xsi:noNamespaceSchemaLocation="http://sumo.dlr.de/xsd/netconvertConfiguration.xsd">

    <input>
        <type-files value="${SUMO_HOME}/data/typemap/osmNetconvert.typ.xml"/>
        <osm-files value="osm_bbox.osm.xml.gz"/>
    </input>

    <output>
        <output-file value="osm.net.xml.gz"/>
        <output.street-names value="true"/>
        <output.original-names value="true"/>
    </output>

    <projection>
        <proj.utm value="true"/>
    </projection>

    <processing>
        <geometry.remove value="true"/>
        <roundabouts.guess value="true"/>
    </processing>

    <tls_building>
        <tls.discard-simple value="true"/>
        <tls.join value="true"/>
        <tls.guess-signals value="true"/>
        <tls.default-type value="actuated"/>
    </tls_building>

    <ramp_guessing>
        <ramps.guess value="true"/>
    </ramp_guessing>

    <edge_removal>
        <keep-edges.by-vclass value="passenger"/>
    </edge_removal>

    <junctions>
        <junctions.join value="true"/>
        <junctions.corner-detail value="5"/>
    </junctions>

</netconvertConfiguration>
-->

<net version="1.20" junctionCornerDetail="5" limitTurnSpeed="5.50" xmlns:xsi="http://www.w3.org/2001/XMLSchema-instance" xsi:noNamespaceSchemaLocation="http://sumo.dlr.de/xsd/net_file.xsd">

    <location netOffset="-288275.87,-4858402.57" convBoundary="0.00,0.00,170.36,164.84" origBoundary="18.365449,43.848377,18.368005,43.849856" projParameter="+proj=utm +zone=34 +ellps=WGS84 +datum=WGS84 +units=m +no_defs"/>

    <type id="highway.residential" priority="3" numLanes="1" speed="13.89" disallow="tram rail_urban rail rail_electric rail_fast ship container cable_car subway aircraft wheelchair scooter drone" oneway="0"/>
    <type id="highway.secondary" priority="11" numLanes="1" speed="27.78" disallow="tram rail_urban rail rail_electric rail_fast ship container cable_car subway aircraft wheelchair scooter drone" oneway="0"/>

    <edge id=":2503160015_0" function="internal">
        <lane id=":2503160015_0_0" index="0" disallow="pedestrian tram rail_urban rail rail_electric rail_fast ship container cable_car subway aircraft wheelchair scooter drone" speed="16.67" length="0.30" shape="53.22,67.31 53.53,67.36"/>
        <lane id=":2503160015_0_1" index="1" disallow="pedestrian tram rail_urban rail rail_electric rail_fast ship container cable_car subway aircraft wheelchair scooter drone" speed="16.67" length="0.30" shape="52.68,70.47 52.98,70.52"/>
        <lane id=":2503160015_0_2" index="2" disallow="pedestrian tram rail_urban rail rail_electric rail_fast ship container cable_car subway aircraft wheelchair scooter drone" speed="16.67" length="0.30" shape="52.14,73.62 52.44,73.67"/>
        <lane id=":2503160015_0_3" index="3" disallow="pedestrian tram rail_urban rail rail_electric rail_fast ship container cable_car subway aircraft wheelchair scooter drone" speed="16.67" length="0.30" shape="51.60,76.77 51.89,76.82"/>
        <lane id=":2503160015_0_4" index="4" disallow="pedestrian tram rail_urban rail rail_electric rail_fast ship container cable_car subway aircraft wheelchair scooter drone" speed="16.67" length="0.30" shape="51.06,79.93 51.34,79.98"/>
    </edge>
    <edge id=":257045353_0" function="internal">
        <lane id=":257045353_0_0" index="0" disallow="tram rail_urban rail rail_electric rail_fast ship container cable_car subway aircraft wheelchair scooter drone" speed="27.78" length="0.25" shape="90.32,25.89 90.29,26.08"/>
        <lane id=":257045353_0_1" index="1" disallow="tram rail_urban rail rail_electric rail_fast ship container cable_car subway aircraft wheelchair scooter drone" speed="27.78" length="0.25" shape="87.16,25.41 87.12,25.66"/>
        <lane id=":257045353_0_2" index="2" disallow="tram rail_urban rail rail_electric rail_fast ship container cable_car subway aircraft wheelchair scooter drone" speed="27.78" length="0.25" shape="83.99,24.93 83.95,25.24"/>
    </edge>
    <edge id=":257045353_3" function="internal">
        <lane id=":257045353_3_0" index="0" disallow="tram rail_urban rail rail_electric rail_fast ship container cable_car subway aircraft wheelchair scooter drone" speed="27.78" length="0.38" shape="80.78,24.82 80.83,24.44"/>
    </edge>
    <edge id=":4673245734_0" function="internal">
        <lane id=":4673245734_0_0" index="0" disallow="tram rail_urban rail rail_electric rail_fast ship container cable_car subway aircraft wheelchair scooter drone" speed="3.65" length="4.67" shape="77.49,163.53 78.52,164.53 78.77,165.39 78.22,166.11 76.90,166.67"/>
    </edge>
    <edge id=":567892374_0" function="internal">
        <lane id=":567892374_0_0" index="0" disallow="pedestrian tram rail_urban rail rail_electric rail_fast ship container cable_car subway aircraft wheelchair scooter drone" speed="7.63" length="12.89" shape="56.62,162.67 52.61,161.46 49.93,159.71 48.58,157.41 48.56,154.57"/>
        <lane id=":567892374_0_1" index="1" disallow="pedestrian tram rail_urban rail rail_electric rail_fast ship container cable_car subway aircraft wheelchair scooter drone" speed="6.86" length="10.20" shape="56.62,162.67 53.98,161.74 52.28,160.19 51.52,158.02 51.69,155.22"/>
        <lane id=":567892374_0_2" index="2" disallow="pedestrian tram rail_urban rail rail_electric rail_fast ship container cable_car subway aircraft wheelchair scooter drone" speed="6.07" length="7.78" shape="56.62,162.67 55.35,162.02 54.63,160.66 54.46,158.62 54.83,155.88"/>
    </edge>
    <edge id=":567892374_3" function="internal">
        <lane id=":567892374_3_0" index="0" disallow="tram rail_urban rail rail_electric rail_fast ship container cable_car subway aircraft wheelchair scooter drone" speed="3.65" length="4.67" shape="56.62,162.67 55.60,161.65 55.36,160.79 55.91,160.08 57.24,159.53"/>
    </edge>
    <edge id=":6365560046_0" function="internal">
        <lane id=":6365560046_0_0" index="0" disallow="tram rail_urban rail rail_electric rail_fast ship container cable_car subway aircraft wheelchair scooter drone" speed="3.65" length="4.67" shape="84.84,-0.26 85.82,-1.31 86.67,-1.58 87.40,-1.05 87.99,0.26"/>
    </edge>
    <edge id=":83738235_0" function="internal">
        <lane id=":83738235_0_0" index="0" disallow="tram rail_urban rail rail_electric rail_fast ship container cable_car subway aircraft wheelchair scooter drone" speed="13.89" length="12.85" shape="76.70,166.63 64.09,164.17"/>
    </edge>
    <edge id=":83738235_1" function="internal">
        <lane id=":83738235_1_0" index="0" disallow="tram rail_urban rail rail_electric rail_fast ship container cable_car subway aircraft wheelchair scooter drone" speed="3.65" length="4.67" shape="76.70,166.63 75.67,165.62 75.43,164.76 75.97,164.05 77.30,163.49"/>
    </edge>
    <edge id=":83738235_2" function="internal">
        <lane id=":83738235_2_0" index="0" disallow="pedestrian tram rail_urban rail rail_electric rail_fast ship container cable_car subway aircraft wheelchair scooter drone" speed="6.21" length="7.95" shape="74.19,157.14 74.05,159.63 74.52,161.52 75.60,162.81 77.30,163.49"/>
    </edge>
    <edge id=":83738235_3" function="internal">
        <lane id=":83738235_3_0" index="0" disallow="pedestrian tram rail_urban rail rail_electric rail_fast ship container cable_car subway aircraft wheelchair scooter drone" speed="7.19" length="11.61" shape="71.03,156.64 70.08,160.35 68.61,162.84 66.61,164.11 64.09,164.17"/>
    </edge>
    <edge id=":83738235_4" function="internal">
        <lane id=":83738235_4_0" index="0" disallow="tram rail_urban rail rail_electric rail_fast ship container cable_car subway aircraft wheelchair scooter drone" speed="13.89" length="12.82" shape="64.72,161.03 77.30,163.49"/>
    </edge>
    <edge id=":83738235_5" function="internal">
        <lane id=":83738235_5_0" index="0" disallow="tram rail_urban rail rail_electric rail_fast ship container cable_car subway aircraft wheelchair scooter drone" speed="3.65" length="4.67" shape="64.72,161.03 65.74,162.05 65.97,162.91 65.42,163.62 64.09,164.17"/>
    </edge>
    <edge id=":cluster_39630061_4673245496_6970320248_6970320249_#1more_0" function="internal">
        <lane id=":cluster_39630061_4673245496_6970320248_6970320249_#1more_0_0" index="0" disallow="pedestrian tram rail_urban rail rail_electric rail_fast ship container cable_car subway aircraft wheelchair scooter drone" speed="6.49" length="8.98" shape="87.32,110.33 84.88,110.26 83.00,111.01 81.68,112.56 80.92,114.92"/>
    </edge>
    <edge id=":cluster_39630061_4673245496_6970320248_6970320249_#1more_1" function="internal">
        <lane id=":cluster_39630061_4673245496_6970320248_6970320249_#1more_1_0" index="0" disallow="pedestrian tram rail_urban rail rail_electric rail_fast ship container cable_car subway aircraft wheelchair scooter drone" speed="16.67" length="34.48" shape="87.77,107.16 53.69,101.29"/>
        <lane id=":cluster_39630061_4673245496_6970320248_6970320249_#1more_1_1" index="1" disallow="pedestrian tram rail_urban rail rail_electric rail_fast ship container cable_car subway aircraft wheelchair scooter drone" speed="16.67" length="34.48" shape="88.21,103.99 54.23,98.13"/>
        <lane id=":cluster_39630061_4673245496_6970320248_6970320249_#1more_1_2" index="2" disallow="pedestrian tram rail_urban rail rail_electric rail_fast ship container cable_car subway aircraft wheelchair scooter drone" speed="16.67" length="34.48" shape="88.66,100.82 54.77,94.98"/>
    </edge>
    <edge id=":cluster_39630061_4673245496_6970320248_6970320249_#1more_4" function="internal">
        <lane id=":cluster_39630061_4673245496_6970320248_6970320249_#1more_4_0" index="0" disallow="pedestrian tram rail_urban rail rail_electric rail_fast ship container cable_car subway aircraft wheelchair scooter drone" speed="12.90" length="21.68" shape="89.10,97.65 80.74,94.34 75.67,87.88 74.85,83.48"/>
    </edge>
    <edge id=":cluster_39630061_4673245496_6970320248_6970320249_#1more_5" function="internal">
        <lane id=":cluster_39630061_4673245496_6970320248_6970320249_#1more_5_0" index="0" disallow="pedestrian tram rail_urban rail rail_electric rail_fast ship container cable_car subway aircraft wheelchair scooter drone" speed="6.72" length="17.73" shape="89.10,97.65 84.24,93.32 82.96,89.49 85.25,86.17 88.08,84.80"/>
    </edge>
    <edge id=":cluster_39630061_4673245496_6970320248_6970320249_#1more_21" function="internal">
        <lane id=":cluster_39630061_4673245496_6970320248_6970320249_#1more_21_0" index="0" disallow="pedestrian tram rail_urban rail rail_electric rail_fast ship container cable_car subway aircraft wheelchair scooter drone" speed="12.90" length="18.14" shape="74.85,83.48 73.88,78.27 75.37,65.52"/>
    </edge>
    <edge id=":cluster_39630061_4673245496_6970320248_6970320249_#1more_22" function="internal">
        <lane id=":cluster_39630061_4673245496_6970320248_6970320249_#1more_22_0" index="0" disallow="pedestrian tram rail_urban rail rail_electric rail_fast ship container cable_car subway aircraft wheelchair scooter drone" speed="6.72" length="3.36" shape="88.08,84.80 91.11,83.35"/>
    </edge>
    <edge id=":cluster_39630061_4673245496_6970320248_6970320249_#1more_6" function="internal">
        <lane id=":cluster_39630061_4673245496_6970320248_6970320249_#1more_6_0" index="0" disallow="pedestrian tram rail_urban rail rail_electric rail_fast ship container cable_car subway aircraft wheelchair scooter drone" speed="7.70" length="13.81" shape="84.75,67.57 84.53,71.23 85.67,74.02 88.16,75.94 92.00,77.01"/>
    </edge>
    <edge id=":cluster_39630061_4673245496_6970320248_6970320249_#1more_7" function="internal">
        <lane id=":cluster_39630061_4673245496_6970320248_6970320249_#1more_7_0" index="0" disallow="pedestrian tram rail_urban rail rail_electric rail_fast ship container cable_car subway aircraft wheelchair scooter drone" speed="27.78" length="47.63" shape="84.75,67.57 83.04,79.77 82.27,93.05 81.78,105.43 80.92,114.92"/>
        <lane id=":cluster_39630061_4673245496_6970320248_6970320249_#1more_7_1" index="1" disallow="pedestrian tram rail_urban rail rail_electric rail_fast ship container cable_car subway aircraft wheelchair scooter drone" speed="27.78" length="47.63" shape="81.62,66.89 79.90,79.11 79.12,92.45 78.63,104.89 77.76,114.41"/>
    </edge>
    <edge id=":cluster_39630061_4673245496_6970320248_6970320249_#1more_9" function="internal">
        <lane id=":cluster_39630061_4673245496_6970320248_6970320249_#1more_9_0" index="0" disallow="pedestrian tram rail_urban rail rail_electric rail_fast ship container cable_car subway aircraft wheelchair scooter drone" speed="13.54" length="21.45" shape="78.50,66.20 74.41,79.87 70.87,86.12"/>
    </edge>
    <edge id=":cluster_39630061_4673245496_6970320248_6970320249_#1more_10" function="internal">
        <lane id=":cluster_39630061_4673245496_6970320248_6970320249_#1more_10_0" index="0" disallow="tram rail_urban rail rail_electric rail_fast ship container cable_car subway aircraft wheelchair scooter drone" speed="3.65" length="1.44" shape="78.50,66.20 77.46,67.20"/>
    </edge>
    <edge id=":cluster_39630061_4673245496_6970320248_6970320249_#1more_23" function="internal">
        <lane id=":cluster_39630061_4673245496_6970320248_6970320249_#1more_23_0" index="0" disallow="pedestrian tram rail_urban rail rail_electric rail_fast ship container cable_car subway aircraft wheelchair scooter drone" speed="13.54" length="19.65" shape="70.87,86.12 69.10,89.23 62.55,94.26 54.77,94.98"/>
    </edge>
    <edge id=":cluster_39630061_4673245496_6970320248_6970320249_#1more_24" function="internal">
        <lane id=":cluster_39630061_4673245496_6970320248_6970320249_#1more_24_0" index="0" disallow="tram rail_urban rail rail_electric rail_fast ship container cable_car subway aircraft wheelchair scooter drone" speed="3.65" length="3.23" shape="77.46,67.20 76.59,67.42 75.90,66.86 75.37,65.52"/>
    </edge>
    <edge id=":cluster_39630061_4673245496_6970320248_6970320249_#1more_11" function="internal">
        <lane id=":cluster_39630061_4673245496_6970320248_6970320249_#1more_11_0" index="0" disallow="pedestrian tram rail_urban rail rail_electric rail_fast ship container cable_car subway aircraft wheelchair scooter drone" speed="8.98" length="17.50" shape="59.34,68.37 65.91,69.15 70.77,68.93 73.93,67.72 75.37,65.52"/>
    </edge>
    <edge id=":cluster_39630061_4673245496_6970320248_6970320249_#1more_12" function="internal">
        <lane id=":cluster_39630061_4673245496_6970320248_6970320249_#1more_12_0" index="0" disallow="pedestrian tram rail_urban rail rail_electric rail_fast ship container cable_car subway aircraft wheelchair scooter drone" speed="16.67" length="33.75" shape="58.80,71.52 92.00,77.01"/>
        <lane id=":cluster_39630061_4673245496_6970320248_6970320249_#1more_12_1" index="1" disallow="pedestrian tram rail_urban rail rail_electric rail_fast ship container cable_car subway aircraft wheelchair scooter drone" speed="16.67" length="33.75" shape="58.26,74.68 91.56,80.18"/>
        <lane id=":cluster_39630061_4673245496_6970320248_6970320249_#1more_12_2" index="2" disallow="pedestrian tram rail_urban rail rail_electric rail_fast ship container cable_car subway aircraft wheelchair scooter drone" speed="16.67" length="33.75" shape="57.71,77.83 91.11,83.35"/>
    </edge>
    <edge id=":cluster_39630061_4673245496_6970320248_6970320249_#1more_15" function="internal">
        <lane id=":cluster_39630061_4673245496_6970320248_6970320249_#1more_15_0" index="0" disallow="pedestrian tram rail_urban rail rail_electric rail_fast ship container cable_car subway aircraft wheelchair scooter drone" speed="13.87" length="25.93" shape="57.17,80.98 68.05,84.72 75.11,91.54 76.54,95.92"/>
    </edge>
    <edge id=":cluster_39630061_4673245496_6970320248_6970320249_#1more_16" function="internal">
        <lane id=":cluster_39630061_4673245496_6970320248_6970320249_#1more_16_0" index="0" disallow="pedestrian tram rail_urban rail rail_electric rail_fast ship container cable_car subway aircraft wheelchair scooter drone" speed="6.63" length="17.35" shape="57.17,80.98 61.82,85.38 62.97,89.18 60.62,92.38 57.87,93.60"/>
    </edge>
    <edge id=":cluster_39630061_4673245496_6970320248_6970320249_#1more_25" function="internal">
        <lane id=":cluster_39630061_4673245496_6970320248_6970320249_#1more_25_0" index="0" disallow="pedestrian tram rail_urban rail rail_electric rail_fast ship container cable_car subway aircraft wheelchair scooter drone" speed="13.87" length="18.79" shape="76.54,95.92 78.35,101.43 77.76,114.41"/>
    </edge>
    <edge id=":cluster_39630061_4673245496_6970320248_6970320249_#1more_26" function="internal">
        <lane id=":cluster_39630061_4673245496_6970320248_6970320249_#1more_26_0" index="0" disallow="pedestrian tram rail_urban rail rail_electric rail_fast ship container cable_car subway aircraft wheelchair scooter drone" speed="6.63" length="3.39" shape="57.87,93.60 54.77,94.98"/>
    </edge>
    <edge id=":cluster_39630061_4673245496_6970320248_6970320249_#1more_17" function="internal">
        <lane id=":cluster_39630061_4673245496_6970320248_6970320249_#1more_17_0" index="0" disallow="pedestrian tram rail_urban rail rail_electric rail_fast ship container cable_car subway aircraft wheelchair scooter drone" speed="7.35" length="11.87" shape="57.53,111.13 57.89,107.18 57.37,104.22 55.97,102.25 53.69,101.29"/>
    </edge>
    <edge id=":cluster_39630061_4673245496_6970320248_6970320249_#1more_18" function="internal">
        <lane id=":cluster_39630061_4673245496_6970320248_6970320249_#1more_18_0" index="0" disallow="pedestrian tram rail_urban rail rail_electric rail_fast ship container cable_car subway aircraft wheelchair scooter drone" speed="27.78" length="48.44" shape="60.69,111.65 63.95,98.90 68.62,84.88 73.00,72.71 75.37,65.52"/>
    </edge>
    <edge id=":cluster_39630061_4673245496_6970320248_6970320249_#1more_19" function="internal">
        <lane id=":cluster_39630061_4673245496_6970320248_6970320249_#1more_19_0" index="0" disallow="pedestrian tram rail_urban rail rail_electric rail_fast ship container cable_car subway aircraft wheelchair scooter drone" speed="14.02" length="29.19" shape="63.85,112.16 67.69,98.42 73.51,89.04 76.78,86.94"/>
    </edge>
    <edge id=":cluster_39630061_4673245496_6970320248_6970320249_#1more_20" function="internal">
        <lane id=":cluster_39630061_4673245496_6970320248_6970320249_#1more_20_0" index="0" disallow="pedestrian tram rail_urban rail rail_electric rail_fast ship container cable_car subway aircraft wheelchair scooter drone" speed="6.62" length="17.07" shape="63.85,112.16 68.18,107.50 71.93,106.33 75.13,108.63 76.31,111.22"/>
    </edge>
    <edge id=":cluster_39630061_4673245496_6970320248_6970320249_#1more_27" function="internal">
        <lane id=":cluster_39630061_4673245496_6970320248_6970320249_#1more_27_0" index="0" disallow="pedestrian tram rail_urban rail rail_electric rail_fast ship container cable_car subway aircraft wheelchair scooter drone" speed="14.02" length="15.22" shape="76.78,86.94 81.32,84.01 91.11,83.35"/>
    </edge>
    <edge id=":cluster_39630061_4673245496_6970320248_6970320249_#1more_28" function="internal">
        <lane id=":cluster_39630061_4673245496_6970320248_6970320249_#1more_28_0" index="0" disallow="pedestrian tram rail_urban rail rail_electric rail_fast ship container cable_car subway aircraft wheelchair scooter drone" speed="6.62" length="3.51" shape="76.31,111.22 77.76,114.41"/>
    </edge>

    <edge id="-10152204#0" from="83738235" to="567892374" name="Džemala Bijedića" priority="3" type="highway.residential">
        <lane id="-10152204#0_0" index="0" disallow="tram rail_urban rail rail_electric rail_fast ship container cable_car subway aircraft wheelchair scooter drone" speed="13.89" length="7.62" shape="64.09,164.17 56.62,162.67">
            <param key="origId" value="10152204"/>
        </lane>
    </edge>
    <edge id="-10152204#1" from="4673245734" to="83738235" name="Džemala Bijedića" priority="3" type="highway.residential">
        <lane id="-10152204#1_0" index="0" disallow="tram rail_urban rail rail_electric rail_fast ship container cable_car subway aircraft wheelchair scooter drone" speed="13.89" length="0.20" shape="76.90,166.67 76.70,166.63">
            <param key="origId" value="10152204"/>
        </lane>
    </edge>
    <edge id="-242800775#1" from="cluster_39630061_4673245496_6970320248_6970320249_#1more" to="257045353" name="Most Kongresmena McCloskey" priority="11" type="highway.secondary" shape="76.39,68.33 77.02,65.47 77.28,63.42 82.39,24.86">
        <lane id="-242800775#1_0" index="0" disallow="tram rail_urban rail rail_electric rail_fast ship container cable_car subway aircraft wheelchair scooter drone" speed="27.78" length="41.06" shape="75.37,65.52 75.44,65.20 75.69,63.22 80.78,24.82">
            <param key="origId" value="242800775 23734346"/>
        </lane>
        <param key="origFrom" value="4673245496"/>
        <param key="ref" value="R 956"/>
    </edge>
    <edge id="-390210005" from="257045353" to="6365560046" name="Prijedorska" priority="11" type="highway.secondary" shape="82.39,24.86 82.67,23.02 82.90,21.40 86.41,0.00">
        <lane id="-390210005_0" index="0" disallow="tram rail_urban rail rail_electric rail_fast ship container cable_car subway aircraft wheelchair scooter drone" speed="27.78" length="25.03" shape="80.83,24.44 81.08,22.79 81.32,21.16 84.84,-0.26">
            <param key="origId" value="390210005"/>
        </lane>
        <param key="ref" value="R 956"/>
    </edge>
    <edge id="10152204#0" from="567892374" to="83738235" name="Džemala Bijedića" priority="3" type="highway.residential">
        <lane id="10152204#0_0" index="0" disallow="tram rail_urban rail rail_electric rail_fast ship container cable_car subway aircraft wheelchair scooter drone" speed="13.89" length="7.62" shape="57.24,159.53 64.72,161.03">
            <param key="origId" value="10152204"/>
        </lane>
    </edge>
    <edge id="10152204#1" from="83738235" to="4673245734" name="Džemala Bijedića" priority="3" type="highway.residential">
        <lane id="10152204#1_0" index="0" disallow="tram rail_urban rail rail_electric rail_fast ship container cable_car subway aircraft wheelchair scooter drone" speed="13.89" length="0.20" shape="77.30,163.49 77.49,163.53">
            <param key="origId" value="10152204"/>
        </lane>
    </edge>
    <edge id="183797188#0" from="cluster_39630061_4673245496_6970320248_6970320249_#1more" to="83738235" name="Alije Kučukalića" priority="11" type="highway.secondary" spreadType="center" shape="81.28,102.78 79.63,112.97 78.96,116.88 71.48,164.01">
        <lane id="183797188#0_0" index="0" disallow="pedestrian tram rail_urban rail rail_electric rail_fast ship container cable_car subway aircraft wheelchair scooter drone" speed="27.78" length="42.76" shape="80.92,114.92 80.54,117.14 74.19,157.14">
            <param key="origId" value="183797188"/>
        </lane>
        <lane id="183797188#0_1" index="1" disallow="pedestrian tram rail_urban rail rail_electric rail_fast ship container cable_car subway aircraft wheelchair scooter drone" speed="27.78" length="42.76" shape="77.76,114.41 77.38,116.62 71.03,156.64">
            <param key="origId" value="183797188"/>
        </lane>
        <param key="origFrom" value="6970320249"/>
        <param key="ref" value="R 956"/>
    </edge>
    <edge id="23734346" from="257045353" to="cluster_39630061_4673245496_6970320248_6970320249_#1more" name="Most Kongresmena McCloskey" priority="11" type="highway.secondary" shape="82.39,24.86 77.28,63.42 77.02,65.47 76.39,68.33">
        <lane id="23734346_0" index="0" disallow="tram rail_urban rail rail_electric rail_fast ship container cable_car subway aircraft wheelchair scooter drone" speed="27.78" length="41.60" shape="90.29,26.08 85.21,64.47 84.91,66.83 84.75,67.57">
            <param key="origId" value="23734346 242800775"/>
        </lane>
        <lane id="23734346_1" index="1" disallow="tram rail_urban rail rail_electric rail_fast ship container cable_car subway aircraft wheelchair scooter drone" speed="27.78" length="41.60" shape="87.12,25.66 82.03,64.05 81.75,66.29 81.62,66.89">
            <param key="origId" value="23734346 242800775"/>
        </lane>
        <lane id="23734346_2" index="2" disallow="tram rail_urban rail rail_electric rail_fast ship container cable_car subway aircraft wheelchair scooter drone" speed="27.78" length="41.60" shape="83.95,25.24 78.86,63.63 78.60,65.75 78.50,66.20">
            <param key="origId" value="23734346 242800775"/>
        </lane>
        <param key="origTo" value="4673245496"/>
        <param key="ref" value="R 956"/>
    </edge>
    <edge id="371345948#0" from="567892374" to="cluster_39630061_4673245496_6970320248_6970320249_#1more" name="Alije Kučukalića" priority="11" type="highway.secondary" spreadType="center" shape="50.73,159.86 60.33,113.68 60.99,110.01 63.01,99.64">
        <lane id="371345948#0_0" index="0" disallow="pedestrian tram rail_urban rail rail_electric rail_fast ship container cable_car subway aircraft wheelchair scooter drone" speed="27.78" length="44.50" shape="48.56,154.57 57.19,113.07 57.53,111.13">
            <param key="origId" value="371345948"/>
        </lane>
        <lane id="371345948#0_1" index="1" disallow="pedestrian tram rail_urban rail rail_electric rail_fast ship container cable_car subway aircraft wheelchair scooter drone" speed="27.78" length="44.50" shape="51.69,155.22 60.33,113.68 60.69,111.65">
            <param key="origId" value="371345948"/>
        </lane>
        <lane id="371345948#0_2" index="2" disallow="pedestrian tram rail_urban rail rail_electric rail_fast ship container cable_car subway aircraft wheelchair scooter drone" speed="27.78" length="44.50" shape="54.83,155.88 63.47,114.29 63.85,112.16">
            <param key="origId" value="371345948"/>
        </lane>
        <param key="origTo" value="6970320250"/>
        <param key="ref" value="R 956"/>
    </edge>
    <edge id="390210005" from="6365560046" to="257045353" name="Prijedorska" priority="11" type="highway.secondary" shape="86.41,0.00 82.90,21.40 82.67,23.02 82.39,24.86">
        <lane id="390210005_0" index="0" disallow="tram rail_urban rail rail_electric rail_fast ship container cable_car subway aircraft wheelchair scooter drone" speed="27.78" length="24.95" shape="94.31,1.29 90.80,22.69 90.58,24.21 90.32,25.89">
            <param key="origId" value="390210005"/>
        </lane>
        <lane id="390210005_1" index="1" disallow="tram rail_urban rail rail_electric rail_fast ship container cable_car subway aircraft wheelchair scooter drone" speed="27.78" length="24.95" shape="91.15,0.78 87.64,22.17 87.41,23.73 87.16,25.41">
            <param key="origId" value="390210005"/>
        </lane>
        <lane id="390210005_2" index="2" disallow="tram rail_urban rail rail_electric rail_fast ship container cable_car subway aircraft wheelchair scooter drone" speed="27.78" length="24.95" shape="87.99,0.26 84.48,21.66 84.25,23.26 83.99,24.93">
            <param key="origId" value="390210005"/>
        </lane>
        <param key="ref" value="R 956"/>
    </edge>
    <edge id="679872763#0" from="cluster_39630061_4673245496_6970320248_6970320249_#1more" to="2502553465" name="Bulevar Meše Selimovića" priority="11" type="highway.secondary" spreadType="center" shape="84.70,79.22 93.35,80.43 97.39,81.17 157.29,92.13">
        <lane id="679872763#0_0" index="0" disallow="pedestrian tram rail_urban rail rail_electric rail_fast ship container cable_car subway aircraft wheelchair scooter drone" speed="16.67" length="66.81" shape="92.00,77.01 93.86,77.27 97.97,78.02 157.87,88.98">
            <param key="origId" value="679872763"/>
        </lane>
        <lane id="679872763#0_1" index="1" disallow="pedestrian tram rail_urban rail rail_electric rail_fast ship container cable_car subway aircraft wheelchair scooter drone" speed="16.67" length="66.81" shape="91.56,80.18 93.35,80.43 97.39,81.17 157.29,92.13">
            <param key="origId" value="679872763"/>
        </lane>
        <lane id="679872763#0_2" index="2" disallow="pedestrian tram rail_urban rail rail_electric rail_fast ship container cable_car subway aircraft wheelchair scooter drone" speed="16.67" length="66.81" shape="91.11,83.35 92.84,83.59 96.82,84.32 156.72,95.27">
            <param key="origId" value="679872763"/>
        </lane>
        <param key="origFrom" value="39630061"/>
    </edge>
    <edge id="679872764#0" from="2503160015" to="cluster_39630061_4673245496_6970320248_6970320249_#1more" name="Bulevar Meše Selimovića" priority="11" type="highway.secondary" spreadType="center" shape="52.29,73.64 55.43,74.19 67.55,76.27">
        <lane id="679872764#0_0" index="0" disallow="pedestrian tram rail_urban rail rail_electric rail_fast ship container cable_car subway aircraft wheelchair scooter drone" speed="16.67" length="5.91" shape="53.53,67.36 56.51,67.88 59.34,68.37">
            <param key="origId" value="679872764"/>
        </lane>
        <lane id="679872764#0_1" index="1" disallow="pedestrian tram rail_urban rail rail_electric rail_fast ship container cable_car subway aircraft wheelchair scooter drone" speed="16.67" length="5.91" shape="52.98,70.52 55.97,71.04 58.80,71.52">
            <param key="origId" value="679872764"/>
        </lane>
        <lane id="679872764#0_2" index="2" disallow="pedestrian tram rail_urban rail rail_electric rail_fast ship container cable_car subway aircraft wheelchair scooter drone" speed="16.67" length="5.91" shape="52.44,73.67 55.43,74.19 58.26,74.68">
            <param key="origId" value="679872764"/>
        </lane>