<routes>
    <vType id="car" accel="1.0" decel="4.5" length="5" maxSpeed="13.89" sigma="0.5"/>
    <route id="route0" edges="1i 3o"/>
    <route id="route1" edges="2i 4o"/>
    <route id="route2" edges="3i 1o"/>
    <route id="route3" edges="4i 2o"/>
    <flow id="flow0" type="car" route="route0" begin="0" end="1000" probability="0.1"/>
    <flow id="flow1" type="car" route="route1" begin="0" end="1000" probability="0.1"/>
    <flow id="flow2" type="car" route="route2" begin="0" end="1000" probability="0.1"/>
    <flow id="flow3" type="car" route="route3" begin="0" end="1000" probability="0.1"/>
</routes>
