<?xml version="1.0" encoding="UTF-8"?>
<routes>
    <vType id="car" accel="2.6" decel="4.5" sigma="0.5" length="5" maxSpeed="13.9" guiShape="passenger"/>
    
    <route id="r1" edges="e0 e1"/>
    <route id="r2" edges="e4 e5"/>
    <route id="r3" edges="e6 e7"/>
    <route id="r4" edges="e2 e3"/>
    
    <!-- Vozila koja kreću iz različitih pravaca -->
    <vehicle id="veh0" type="car" route="r1" depart="0"/>
    <vehicle id="veh1" type="car" route="r2" depart="5"/>
    <vehicle id="veh2" type="car" route="r3" depart="10"/>
    <vehicle id="veh3" type="car" route="r4" depart="15"/>
</routes>
